Version 4
SHEET 1 1700 680
WIRE 480 -320 32 -320
WIRE 848 -320 576 -320
WIRE 928 -320 848 -320
WIRE 1072 -320 1008 -320
WIRE 848 -240 848 -320
WIRE 528 -224 528 -256
WIRE 800 -176 736 -176
WIRE 1072 -176 1072 -320
WIRE 1072 -176 896 -176
WIRE 32 -96 32 -320
WIRE 32 -96 -144 -96
WIRE 224 -96 32 -96
WIRE 288 -96 224 -96
WIRE 528 -96 528 -144
WIRE 528 -96 384 -96
WIRE 1072 -32 1072 -176
WIRE 464 16 160 16
WIRE 32 32 32 -96
WIRE 336 32 336 -32
WIRE 528 32 528 -96
WIRE -144 96 -144 -96
WIRE 224 128 224 -96
WIRE 160 144 160 16
WIRE 192 144 160 144
WIRE 336 160 336 112
WIRE 336 160 256 160
WIRE 32 176 32 112
WIRE 192 176 32 176
WIRE 464 176 464 16
WIRE 528 176 528 112
WIRE 528 176 464 176
WIRE 32 208 32 176
WIRE 528 224 528 176
WIRE 336 336 336 160
WIRE 736 336 736 -176
WIRE 736 336 336 336
WIRE -144 416 -144 176
WIRE 32 416 32 272
WIRE 32 416 -144 416
WIRE 224 416 224 192
WIRE 224 416 32 416
WIRE 528 416 528 304
WIRE 528 416 224 416
WIRE 1072 416 1072 48
WIRE 1072 416 528 416
FLAG 528 416 0
FLAG 1072 -176 Vout
IOPIN 1072 -176 Out
SYMBOL OpAmps\\LM741 224 96 R0
SYMATTR InstName U1
SYMBOL res 320 16 R0
SYMATTR InstName R1
SYMATTR Value 1k
SYMATTR SpiceLine tol=1 pwr=0.1
SYMBOL res 512 16 R0
SYMATTR InstName R2
SYMATTR Value 1K
SYMATTR SpiceLine tol=1 pwr=0.1
SYMBOL res 512 208 R0
SYMATTR InstName R3
SYMATTR Value 4.75K
SYMATTR SpiceLine tol=1 pwr=0.1
SYMBOL res 16 16 R0
SYMATTR InstName R4
SYMATTR Value 100
SYMATTR SpiceLine tol=1 pwr=0.1
SYMBOL npn 288 -32 R270
SYMATTR InstName Q1
SYMATTR Value BC547B
SYMBOL zener 48 272 R180
WINDOW 0 24 64 Left 2
WINDOW 3 24 0 Left 2
SYMATTR InstName D1
SYMATTR Value 1N750
SYMBOL voltage -144 80 R0
WINDOW 123 0 0 Left 0
WINDOW 39 0 0 Left 0
SYMATTR InstName V1
SYMATTR Value 12
SYMBOL npn 480 -256 R270
SYMATTR InstName Q2
SYMATTR Value BC547B
SYMBOL res 512 -240 R0
SYMATTR InstName R6
SYMATTR Value 1K
SYMATTR SpiceLine tol=1 pwr=0.1
SYMBOL res 1024 -336 R90
WINDOW 0 0 56 VBottom 2
WINDOW 3 32 56 VTop 2
SYMATTR InstName R5
SYMATTR Value 49.9
SYMATTR SpiceLine tol=1 pwr=0.1
SYMBOL npn 800 -240 M90
SYMATTR InstName Q3
SYMATTR Value BC547B
SYMBOL res 1056 -48 R0
SYMATTR InstName Load
SYMATTR Value 1k
SYMATTR SpiceLine tol=1 pwr=0.1
TEXT -176 440 Left 2 !.tran 0 5s 4s 10
TEXT 1216 296 Left 2 ;Voltage Output 5V\nCurrent Limiting App.14mA\nLine Regulation App.8V to 15V\nLoad Regulation for R>1k
